Pcp_File_Version=4
      1
Welcome to HYDRUS-1D
  
   NOBB     MIT iWeight
      7     100       0
  lWatF  lChemF    NMat   lTempF
      t       t       1       f
  Model   Hysteresis
      0       0
     NS  ConcType   lBact    lFiltr   lDualNEq
      1         0       0        f       f
    thr     ths    Alfa       n         Ks       l
  0.065    0.53   0.075    1.89    0.00764     0.5 
      1       0       1       1          0       0 
   0.04       0    0.01     1.1          0     0.5 
    0.1       0     0.5     2.9          0       0 
Bulk.d.   DisperL.    Frac     MobileWC DifW     DifG       Ks       Nu     Beta    Henry    SnkL1    SnkS1    SnkG1   SnkL1'   SnkS1'   SnkG1'    SnkL0    SnkS0    SnkG0     Alfa
    1.35       10        1        0 1.85e-005        0        0        0        1        0        0        0        0        0        0        0        0        0        0        0 
       0        1        0        0        0        0        0        0        0        0        0        0        0        0        0        0        0        0        0        0 
       0        0        0        0        0        0        0        0        0        0        0        0        0        0        0        0        0        0        0        0 
       0      100        0        0        0        0        0        0        0        0        0        0        0        0        0        0        0        0        0        0 
      HO(N)         FOS   ITYPE(N) POS     WTS
   -0.126852  0.000726873    14     3        1 
   -0.262785   0.00144255    14     3        1 
   -0.759944   0.00291452    14     3        1 
    -1.51244   0.00343419    14     3        1 
    -2.50733   0.00353031    14     3        1 
    -3.50163   0.00346944    14     3        1 
      -4.501   0.00368319    14     3        1 
end*** END OF INPUT FILE 'FIT.IN' **********************************
