Pcp_File_Version=4
      1
Welcome to HYDRUS-1D
  
   NOBB     MIT iWeight
      7     500       0
  lWatF  lChemF    NMat   lTempF
      t       t       1       f
  Model   Hysteresis
      0       0
     NS  ConcType   lBact    lFiltr   lDualNEq
      1         0       0        f       f
    thr     ths    Alfa       n         Ks       l
  0.068    0.55   0.008    1.09   0.000439     0.5 
      1       0       1       1          0       0 
   0.04       0   0.005     0.9          0     0.5 
    0.1       0     0.5     2.9          0       0 
Bulk.d.   DisperL.    Frac     MobileWC DifW     DifG       Ks       Nu     Beta    Henry    SnkL1    SnkS1    SnkG1   SnkL1'   SnkS1'   SnkG1'    SnkL0    SnkS0    SnkG0     Alfa
    1.12       10        1        0 1.85e-005        0        0        0        1        0        0        0        0        0        0        0        0        0        0        0 
       0        1        0        0        0        0        0        0        0        0        0        0        0        0        0        0        0        0        0        0 
       0        0        0        0        0        0        0        0        0        0        0        0        0        0        0        0        0        0        0        0 
       0    10000        0        0        0        0        0        0        0        0        0        0        0        0        0        0        0        0        0        0 
      HO(N)         FOS   ITYPE(N) POS     WTS
   -0.124116   0.00215233    14     3        1 
   -0.243143    0.0026248    14     3        1 
    -0.74483   0.00296406    14     3        1 
    -1.49304   0.00377189    14     3        1 
    -2.49788   0.00416223    14     3        1 
     -3.4955   0.00446248    14     3        1 
    -4.48924   0.00450092    14     3        1 
end*** END OF INPUT FILE 'FIT.IN' **********************************
