Pcp_File_Version=4
      1
Welcome to HYDRUS-1D
  
   NOBB     MIT iWeight
      7     500       0
  lWatF  lChemF    NMat   lTempF
      t       t       1       f
  Model   Hysteresis
      0       0
     NS  ConcType   lBact    lFiltr   lDualNEq
      1         0       0        f       f
    thr     ths    Alfa       n         Ks       l
  0.078    0.49   0.036    1.56   0.000386     0.5 
      1       0       1       1          0       0 
   0.04       0   0.005     0.9          0     0.5 
    0.1       0     0.5     2.9          0       0 
Bulk.d.   DisperL.    Frac     MobileWC DifW     DifG       Ks       Nu     Beta    Henry    SnkL1    SnkS1    SnkG1   SnkL1'   SnkS1'   SnkG1'    SnkL0    SnkS0    SnkG0     Alfa
    1.42       10        1        0 1.85e-005        0        0        0        1        0        0        0        0        0        0        0        0        0        0        0 
       0        1        0        0        0        0        0        0        0        0        0        0        0        0        0        0        0        0        0        0 
       0        0        0        0        0        0        0        0        0        0        0        0        0        0        0        0        0        0        0        0 
       0      100        0        0        0        0        0        0        0        0        0        0        0        0        0        0        0        0        0        0 
      HO(N)         FOS   ITYPE(N) POS     WTS
        -0.1      0.00079    14     3        1 
       -0.22      0.00222    14     3        1 
        -0.7      0.00347    14     3        1 
        -1.5      0.00411    14     3        1 
        -2.5      0.00489    14     3        1 
        -3.5      0.00469    14     3        1 
        -4.5      0.00445    14     3        1 
end*** END OF INPUT FILE 'FIT.IN' **********************************
